OPT_V8/My_Campus_24/powerflow_results_t15.txt
Pandapower Network Debug Info
==================================================

BUS:
       vm_pu  va_degree      p_mw    q_mvar
0   0.996294   0.237098 -0.000352  0.001063
1   0.993935   0.393453 -0.000361  0.002038
2   0.991454   0.511713  0.000600  0.002716
3   0.994094   0.348209  0.000641  0.003376
4   0.990787   0.314774  0.002037  0.005136
5   0.994006   0.254390  0.002210  0.006054
6   0.993569   0.319006 -0.000311  0.001037
7   0.998245   0.055073  0.000796  0.001951
8   0.998216   0.064696  0.000686  0.003191
9   0.999895   0.001144  0.009012  0.011495
10  0.999882   0.001172  0.011228  0.007315
11  0.999872   0.001252  0.011188  0.011573
12  0.999810   0.003421  0.007828  0.005017
13  0.999785   0.003824  0.009595  0.010760
14  0.999794   0.003732  0.009221  0.013147
15  0.999938   0.000883  0.000000  0.000000
16  0.999938   0.000889  0.000000  0.000000
17  0.999814   0.003442  0.000000  0.000000
18  0.999814   0.003453  0.000000  0.000000
19  1.000000   0.000000 -0.032050 -0.044633
20  1.000000   0.000006  0.000000  0.000000
21  1.000000   0.000000 -0.032188 -0.051376
22  1.000000   0.000007  0.000000  0.000000
--------------------------------------------------

LINE:
    p_from_mw  q_from_mvar   p_to_mw  q_to_mvar         pl_mw       ql_mvar  i_from_ka   i_to_ka      i_ka  vm_from_pu  va_from_degree  vm_to_pu  va_to_degree  loading_percent
0    0.032040     0.040633 -0.032037  -0.040630  2.618992e-06  2.042071e-06   0.001992  0.001992  0.001992    1.000000        0.000006  0.999938      0.000883         0.865941
1    0.032178     0.047376 -0.032169  -0.047369  8.822480e-06  6.879033e-06   0.002204  0.002204  0.002204    1.000000        0.000007  0.999814      0.003442         0.958408
2    0.031430     0.030384 -0.031428  -0.030383  1.477943e-06  1.152377e-06   0.001683  0.001683  0.001683    0.999938        0.000883  0.999895      0.001144         0.731611
3    0.007828     0.005017 -0.007828  -0.005017  2.990879e-08  2.332038e-08   0.000358  0.000358  0.000358    0.999814        0.003442  0.999810      0.003421         0.155630
4    0.018816     0.023907 -0.018816  -0.023907  5.063011e-07  3.947713e-07   0.001171  0.001171  0.001171    0.999814        0.003442  0.999794      0.003732         0.509229
5    0.000597     0.009247 -0.000557  -0.009215  4.016240e-05  3.131529e-05   0.013375  0.013375  0.013375    0.999938        0.000889  0.996294      0.237098         5.815247
6    0.001942     0.007125 -0.001900  -0.007092  4.232444e-05  3.300107e-05   0.010661  0.010661  0.010661    0.999814        0.003453  0.994006      0.254390         4.635189
7    0.000799     0.001954 -0.000796  -0.001951  3.010304e-06  2.347184e-06   0.003047  0.003047  0.003047    0.999814        0.003453  0.998245      0.055073         1.324676
8    0.002774     0.008367 -0.002760  -0.008357  1.336454e-05  1.042055e-05   0.012725  0.012725  0.012725    0.999814        0.003453  0.998216      0.064696         5.532778
9   -0.022416    -0.018888  0.022416   0.018888  2.972069e-07  2.317371e-07   0.001128  0.001128  0.001128    0.999882        0.001172  0.999895      0.001144         0.490595
10  -0.011188    -0.011573  0.011188   0.011573  1.267453e-07  9.882540e-08   0.000620  0.000620  0.000620    0.999872        0.001252  0.999882      0.001172         0.269403
11   0.009595     0.010760 -0.009595  -0.010760  1.016884e-07  7.928813e-08   0.000555  0.000555  0.000555    0.999794        0.003732  0.999785      0.003824         0.241308
12  -0.000246    -0.004760  0.000260   0.004770  1.360242e-05  1.060603e-05   0.006921  0.006921  0.006921    0.993935        0.393453  0.996294      0.237098         3.009098
13  -0.000641    -0.003376  0.000649   0.003383  7.979929e-06  6.222082e-06   0.004990  0.004990  0.004990    0.994094        0.348209  0.996294      0.237098         2.169529
14  -0.000600    -0.002716  0.000607   0.002722  7.119315e-06  5.551047e-06   0.004049  0.004049  0.004049    0.991454        0.511713  0.993935      0.393453         1.760532
15   0.002074     0.005165 -0.002037  -0.005136  3.783435e-05  2.950006e-05   0.008049  0.008049  0.008049    0.998216        0.064696  0.990787      0.314774         3.499398
16   0.000311    -0.001037 -0.000310   0.001038  1.033390e-06  8.057516e-07   0.001573  0.001573  0.001573    0.993569        0.319006  0.994006      0.254390         0.683705
--------------------------------------------------

TRAFO:
    p_hv_mw  q_hv_mvar   p_lv_mw  q_lv_mvar    pl_mw  ql_mvar   i_hv_ka   i_lv_ka  vm_hv_pu  va_hv_degree  vm_lv_pu  va_lv_degree  loading_percent
0  0.000607   0.010247 -0.000597  -0.009247  0.00001    0.001  0.000395  0.013375  0.999938      0.000883  0.999938      0.000889         0.102651
1  0.005524   0.018445 -0.005514  -0.017445  0.00001    0.001  0.000741  0.026413  0.999814      0.003442  0.999814      0.003453         0.192580
2  0.032050   0.044633 -0.032040  -0.040633  0.00001    0.004  0.000453  0.001992  1.000000      0.000000  1.000000      0.000006         0.137369
3  0.032188   0.051376 -0.032178  -0.047376  0.00001    0.004  0.000500  0.002204  1.000000      0.000000  1.000000      0.000007         0.151566
--------------------------------------------------
